# Packages
 &PACKAGES
 usePTRACERS=.FALSE.,
 useDiagnostics=.TRUE.,
 useRBCS=.TRUE.,
 useLayers=.FALSE.,
 useGMRedi=.TRUE.,
 /
