# =====================
# | Layers parameters |
# =====================

# Parameters for layers package
 &LAYERS_PARM01
 layers_bounds=0.00000000e+00, 9.93904540e-03, 3.14314745e-02, 5.52689228e-02, 8.17052719e-02, 1.11021188e-01, 1.43526697e-01, 1.79563921e-01, 2.19509940e-01, 2.63779752e-01, 
      3.12829246e-01, 3.67158108e-01, 4.27312504e-01, 4.93887353e-01, 5.67527910e-01, 6.48930300e-01, 7.38840512e-01, 8.38051241e-01, 9.47395756e-01, 1.06773785e+00, 
      1.19995666e+00, 1.34492504e+00, 1.50348010e+00, 1.67638447e+00, 1.86427730e+00, 2.06761471e+00, 2.28660063e+00, 2.52111077e+00, 2.77061542e+00, 3.03410914e+00, 
      3.31005908e+00, 3.59638468e+00, 3.89048205e+00, 4.18930195e+00, 4.48948363e+00, 4.78753624e+00, 5.08004900e+00, 5.36390332e+00, 5.63645737e+00, 5.89567871e+00, 
      6.14021028e+00, 6.36936858e+00, 6.58308402e+00, 6.78180114e+00, 6.96635858e+00, 7.13786657e+00, 7.29759517e+00, 7.44688089e+00, 7.58705468e+00, 7.71939071e+00, 
      7.84507344e+00, 7.96517928e+00, 8.08066927e+00, 8.19238961e+00, 8.30107715e+00, 8.40736791e+00, 8.51180711e+00, 8.61485959e+00, 8.71691999e+00, 8.81832236e+00, 
      8.91934880e+00, 9.02023724e+00, 9.12118824e+00, 9.22237086e+00, 9.32392773e+00, 9.42597934e+00, 9.52862774e+00, 9.63195958e+00, 9.73604871e+00, 9.84095836e+00, 
      9.94674296e+00, 1.00000000e+01, 1.01000000e+01, 1.02000000e+01, 1.03000000e+01, 1.04000000e+01, 1.05000000e+01, 1.06000000e+01, 1.07000000e+01, 1.08000000e+01, 
      1.09000000e+01, 1.10000000e+01, 1.11000000e+01, 1.12000000e+01, 1.13000000e+01, 1.14000000e+01, 1.15000000e+01, 1.16000000e+01, 1.17000000e+01, 1.18000000e+01, 
      1.19000000e+01, 1.20000000e+01, 1.21000000e+01, 1.22000000e+01, 1.23000000e+01, 1.24000000e+01, 1.25000000e+01, 1.26000000e+01, 1.27000000e+01, 1.28000000e+01, 
      1.29000000e+01, 1.30000000e+01, 1.31000000e+01, 1.32000000e+01, 1.33000000e+01, 1.34000000e+01, 1.35000000e+01, 1.36000000e+01, 1.37000000e+01, 1.38000000e+01, 
      1.39000000e+01, 1.40000000e+01, 1.41000000e+01, 1.42000000e+01, 1.43000000e+01, 1.44000000e+01, 1.45000000e+01, 1.46000000e+01, 1.47000000e+01, 1.48000000e+01, 
      1.49000000e+01, 1.50000000e+01,
 layers_krho=1,
 layers_name='TH',
 layers_bolus=.FALSE.,
 &

